
---------- Begin Simulation Statistics ----------
simSeconds                                   0.005237                       # Number of seconds simulated (Second)
simTicks                                   5237275000                       # Number of ticks simulated (Tick)
finalTick                                  5237275000                       # Number of ticks from beginning of simulation (restored from checkpoints and never reset) (Tick)
simFreq                                  1000000000000                       # The number of ticks per simulated second ((Tick/Second))
hostSeconds                                     18.06                       # Real time elapsed on the host (Second)
hostTickRate                                289932418                       # The number of ticks simulated per host second (ticks/s) ((Tick/Second))
hostMemory                                    2280576                       # Number of bytes of host memory used (Byte)
simInsts                                        62687                       # Number of instructions simulated (Count)
simOps                                         125182                       # Number of ops (including micro ops) simulated (Count)
hostInstRate                                     3470                       # Simulator instruction rate (inst/s) ((Count/Second))
hostOpRate                                       6930                       # Simulator op (including micro ops) rate (op/s) ((Count/Second))
system.clk_domain.clock                          1000                       # Clock period in ticks (Tick)
system.clk_domain.voltage_domain.voltage            1                       # Voltage in Volts (Volt)
system.cpu.numCycles                          5237275                       # Number of cpu cycles simulated (Cycle)
system.cpu.numWorkItemsStarted                      0                       # Number of work items this cpu started (Count)
system.cpu.numWorkItemsCompleted                    0                       # Number of work items this cpu completed (Count)
system.cpu.exec_context.thread_0.numInsts        62687                       # Number of instructions committed (Count)
system.cpu.exec_context.thread_0.numOps        125182                       # Number of ops (including micro ops) committed (Count)
system.cpu.exec_context.thread_0.numIntAluAccesses       120404                       # Number of integer alu accesses (Count)
system.cpu.exec_context.thread_0.numFpAluAccesses         4552                       # Number of float alu accesses (Count)
system.cpu.exec_context.thread_0.numVecAluAccesses            0                       # Number of vector alu accesses (Count)
system.cpu.exec_context.thread_0.numCallsReturns         3375                       # Number of times a function call or return occured (Count)
system.cpu.exec_context.thread_0.numCondCtrlInsts        10377                       # Number of instructions that are conditional controls (Count)
system.cpu.exec_context.thread_0.numIntInsts       120404                       # Number of integer instructions (Count)
system.cpu.exec_context.thread_0.numFpInsts         4552                       # Number of float instructions (Count)
system.cpu.exec_context.thread_0.numVecInsts            0                       # Number of vector instructions (Count)
system.cpu.exec_context.thread_0.numIntRegReads       149599                       # Number of times the integer registers were read (Count)
system.cpu.exec_context.thread_0.numIntRegWrites        86023                       # Number of times the integer registers were written (Count)
system.cpu.exec_context.thread_0.numFpRegReads         5072                       # Number of times the floating registers were read (Count)
system.cpu.exec_context.thread_0.numFpRegWrites         3758                       # Number of times the floating registers were written (Count)
system.cpu.exec_context.thread_0.numVecRegReads            0                       # Number of times the vector registers were read (Count)
system.cpu.exec_context.thread_0.numVecRegWrites            0                       # Number of times the vector registers were written (Count)
system.cpu.exec_context.thread_0.numVecPredRegReads            0                       # Number of times the predicate registers were read (Count)
system.cpu.exec_context.thread_0.numVecPredRegWrites            0                       # Number of times the predicate registers were written (Count)
system.cpu.exec_context.thread_0.numCCRegReads        65687                       # Number of times the CC registers were read (Count)
system.cpu.exec_context.thread_0.numCCRegWrites        36068                       # Number of times the CC registers were written (Count)
system.cpu.exec_context.thread_0.numMiscRegReads        52649                       # Number of times the Misc registers were read (Count)
system.cpu.exec_context.thread_0.numMiscRegWrites            0                       # Number of times the Misc registers were written (Count)
system.cpu.exec_context.thread_0.numMemRefs        25085                       # Number of memory refs (Count)
system.cpu.exec_context.thread_0.numLoadInsts        15298                       # Number of load instructions (Count)
system.cpu.exec_context.thread_0.numStoreInsts         9787                       # Number of store instructions (Count)
system.cpu.exec_context.thread_0.numIdleCycles     0.001000                       # Number of idle cycles (Cycle)
system.cpu.exec_context.thread_0.numBusyCycles 5237274.999000                       # Number of busy cycles (Cycle)
system.cpu.exec_context.thread_0.notIdleFraction     1.000000                       # Percentage of non-idle cycles (Ratio)
system.cpu.exec_context.thread_0.idleFraction     0.000000                       # Percentage of idle cycles (Ratio)
system.cpu.exec_context.thread_0.numBranches        14233                       # Number of branches fetched (Count)
system.cpu.exec_context.thread_0.statExecutedInstType::No_OpClass         1653      1.32%      1.32% # Class of executed instruction. (Count)
system.cpu.exec_context.thread_0.statExecutedInstType::IntAlu        95360     76.16%     77.48% # Class of executed instruction. (Count)
system.cpu.exec_context.thread_0.statExecutedInstType::IntMult            4      0.00%     77.48% # Class of executed instruction. (Count)
system.cpu.exec_context.thread_0.statExecutedInstType::IntDiv           28      0.02%     77.51% # Class of executed instruction. (Count)
system.cpu.exec_context.thread_0.statExecutedInstType::FloatAdd          962      0.77%     78.28% # Class of executed instruction. (Count)
system.cpu.exec_context.thread_0.statExecutedInstType::FloatCmp            0      0.00%     78.28% # Class of executed instruction. (Count)
system.cpu.exec_context.thread_0.statExecutedInstType::FloatCvt            0      0.00%     78.28% # Class of executed instruction. (Count)
system.cpu.exec_context.thread_0.statExecutedInstType::FloatMult            0      0.00%     78.28% # Class of executed instruction. (Count)
system.cpu.exec_context.thread_0.statExecutedInstType::FloatMultAcc            0      0.00%     78.28% # Class of executed instruction. (Count)
system.cpu.exec_context.thread_0.statExecutedInstType::FloatDiv            0      0.00%     78.28% # Class of executed instruction. (Count)
system.cpu.exec_context.thread_0.statExecutedInstType::FloatMisc            0      0.00%     78.28% # Class of executed instruction. (Count)
system.cpu.exec_context.thread_0.statExecutedInstType::FloatSqrt            0      0.00%     78.28% # Class of executed instruction. (Count)
system.cpu.exec_context.thread_0.statExecutedInstType::SimdAdd           24      0.02%     78.29% # Class of executed instruction. (Count)
system.cpu.exec_context.thread_0.statExecutedInstType::SimdAddAcc            0      0.00%     78.29% # Class of executed instruction. (Count)
system.cpu.exec_context.thread_0.statExecutedInstType::SimdAlu          670      0.54%     78.83% # Class of executed instruction. (Count)
system.cpu.exec_context.thread_0.statExecutedInstType::SimdCmp            0      0.00%     78.83% # Class of executed instruction. (Count)
system.cpu.exec_context.thread_0.statExecutedInstType::SimdCvt          234      0.19%     79.02% # Class of executed instruction. (Count)
system.cpu.exec_context.thread_0.statExecutedInstType::SimdMisc         1188      0.95%     79.97% # Class of executed instruction. (Count)
system.cpu.exec_context.thread_0.statExecutedInstType::SimdMult            0      0.00%     79.97% # Class of executed instruction. (Count)
system.cpu.exec_context.thread_0.statExecutedInstType::SimdMultAcc            0      0.00%     79.97% # Class of executed instruction. (Count)
system.cpu.exec_context.thread_0.statExecutedInstType::SimdShift            0      0.00%     79.97% # Class of executed instruction. (Count)
system.cpu.exec_context.thread_0.statExecutedInstType::SimdShiftAcc            0      0.00%     79.97% # Class of executed instruction. (Count)
system.cpu.exec_context.thread_0.statExecutedInstType::SimdDiv            0      0.00%     79.97% # Class of executed instruction. (Count)
system.cpu.exec_context.thread_0.statExecutedInstType::SimdSqrt            0      0.00%     79.97% # Class of executed instruction. (Count)
system.cpu.exec_context.thread_0.statExecutedInstType::SimdFloatAdd            0      0.00%     79.97% # Class of executed instruction. (Count)
system.cpu.exec_context.thread_0.statExecutedInstType::SimdFloatAlu            0      0.00%     79.97% # Class of executed instruction. (Count)
system.cpu.exec_context.thread_0.statExecutedInstType::SimdFloatCmp            0      0.00%     79.97% # Class of executed instruction. (Count)
system.cpu.exec_context.thread_0.statExecutedInstType::SimdFloatCvt            0      0.00%     79.97% # Class of executed instruction. (Count)
system.cpu.exec_context.thread_0.statExecutedInstType::SimdFloatDiv            0      0.00%     79.97% # Class of executed instruction. (Count)
system.cpu.exec_context.thread_0.statExecutedInstType::SimdFloatMisc            0      0.00%     79.97% # Class of executed instruction. (Count)
system.cpu.exec_context.thread_0.statExecutedInstType::SimdFloatMult            0      0.00%     79.97% # Class of executed instruction. (Count)
system.cpu.exec_context.thread_0.statExecutedInstType::SimdFloatMultAcc            0      0.00%     79.97% # Class of executed instruction. (Count)
system.cpu.exec_context.thread_0.statExecutedInstType::SimdFloatSqrt            0      0.00%     79.97% # Class of executed instruction. (Count)
system.cpu.exec_context.thread_0.statExecutedInstType::SimdReduceAdd            0      0.00%     79.97% # Class of executed instruction. (Count)
system.cpu.exec_context.thread_0.statExecutedInstType::SimdReduceAlu            0      0.00%     79.97% # Class of executed instruction. (Count)
system.cpu.exec_context.thread_0.statExecutedInstType::SimdReduceCmp            0      0.00%     79.97% # Class of executed instruction. (Count)
system.cpu.exec_context.thread_0.statExecutedInstType::SimdFloatReduceAdd            0      0.00%     79.97% # Class of executed instruction. (Count)
system.cpu.exec_context.thread_0.statExecutedInstType::SimdFloatReduceCmp            0      0.00%     79.97% # Class of executed instruction. (Count)
system.cpu.exec_context.thread_0.statExecutedInstType::SimdAes            0      0.00%     79.97% # Class of executed instruction. (Count)
system.cpu.exec_context.thread_0.statExecutedInstType::SimdAesMix            0      0.00%     79.97% # Class of executed instruction. (Count)
system.cpu.exec_context.thread_0.statExecutedInstType::SimdSha1Hash            0      0.00%     79.97% # Class of executed instruction. (Count)
system.cpu.exec_context.thread_0.statExecutedInstType::SimdSha1Hash2            0      0.00%     79.97% # Class of executed instruction. (Count)
system.cpu.exec_context.thread_0.statExecutedInstType::SimdSha256Hash            0      0.00%     79.97% # Class of executed instruction. (Count)
system.cpu.exec_context.thread_0.statExecutedInstType::SimdSha256Hash2            0      0.00%     79.97% # Class of executed instruction. (Count)
system.cpu.exec_context.thread_0.statExecutedInstType::SimdShaSigma2            0      0.00%     79.97% # Class of executed instruction. (Count)
system.cpu.exec_context.thread_0.statExecutedInstType::SimdShaSigma3            0      0.00%     79.97% # Class of executed instruction. (Count)
system.cpu.exec_context.thread_0.statExecutedInstType::SimdPredAlu            0      0.00%     79.97% # Class of executed instruction. (Count)
system.cpu.exec_context.thread_0.statExecutedInstType::MemRead        14977     11.96%     91.93% # Class of executed instruction. (Count)
system.cpu.exec_context.thread_0.statExecutedInstType::MemWrite         9199      7.35%     99.27% # Class of executed instruction. (Count)
system.cpu.exec_context.thread_0.statExecutedInstType::FloatMemRead          321      0.26%     99.53% # Class of executed instruction. (Count)
system.cpu.exec_context.thread_0.statExecutedInstType::FloatMemWrite          588      0.47%    100.00% # Class of executed instruction. (Count)
system.cpu.exec_context.thread_0.statExecutedInstType::IprAccess            0      0.00%    100.00% # Class of executed instruction. (Count)
system.cpu.exec_context.thread_0.statExecutedInstType::InstPrefetch            0      0.00%    100.00% # Class of executed instruction. (Count)
system.cpu.exec_context.thread_0.statExecutedInstType::total       125208                       # Class of executed instruction. (Count)
system.cpu.interrupts.clk_domain.clock          16000                       # Clock period in ticks (Tick)
system.cpu.mmu.dtb.rdAccesses                   15316                       # TLB accesses on read requests (Count)
system.cpu.mmu.dtb.wrAccesses                    9787                       # TLB accesses on write requests (Count)
system.cpu.mmu.dtb.rdMisses                        27                       # TLB misses on read requests (Count)
system.cpu.mmu.dtb.wrMisses                        20                       # TLB misses on write requests (Count)
system.cpu.mmu.dtb.walker.power_state.pwrStateResidencyTicks::UNDEFINED   5237275000                       # Cumulative time (in ticks) in various power states (Tick)
system.cpu.mmu.itb.rdAccesses                       0                       # TLB accesses on read requests (Count)
system.cpu.mmu.itb.wrAccesses                   81606                       # TLB accesses on write requests (Count)
system.cpu.mmu.itb.rdMisses                         0                       # TLB misses on read requests (Count)
system.cpu.mmu.itb.wrMisses                       110                       # TLB misses on write requests (Count)
system.cpu.mmu.itb.walker.power_state.pwrStateResidencyTicks::UNDEFINED   5237275000                       # Cumulative time (in ticks) in various power states (Tick)
system.cpu.power_state.pwrStateResidencyTicks::ON   5237275000                       # Cumulative time (in ticks) in various power states (Tick)
system.cpu.thread_0.numInsts                        0                       # Number of Instructions committed (Count)
system.cpu.thread_0.numOps                          0                       # Number of Ops committed (Count)
system.cpu.thread_0.numMemRefs                      0                       # Number of Memory References (Count)
system.cpu.workload.numSyscalls                    19                       # Number of system calls (Count)
system.foobar.transDist::ReadReq                96879                       # Transaction distribution (Count)
system.foobar.transDist::ReadResp               96879                       # Transaction distribution (Count)
system.foobar.transDist::WriteReq                9739                       # Transaction distribution (Count)
system.foobar.transDist::WriteResp               9739                       # Transaction distribution (Count)
system.foobar.transDist::LockedRMWReadReq           42                       # Transaction distribution (Count)
system.foobar.transDist::LockedRMWReadResp           42                       # Transaction distribution (Count)
system.foobar.transDist::LockedRMWWriteReq           42                       # Transaction distribution (Count)
system.foobar.transDist::LockedRMWWriteResp           42                       # Transaction distribution (Count)
system.foobar.pktCount_system.cpu.icache_port::system.mem_ctrl.port       163212                       # Packet count per connected requestor and responder (Count)
system.foobar.pktCount_system.cpu.icache_port::total       163212                       # Packet count per connected requestor and responder (Count)
system.foobar.pktCount_system.cpu.dcache_port::system.mem_ctrl.port        50192                       # Packet count per connected requestor and responder (Count)
system.foobar.pktCount_system.cpu.dcache_port::total        50192                       # Packet count per connected requestor and responder (Count)
system.foobar.pktCount::total                  213404                       # Packet count per connected requestor and responder (Count)
system.foobar.pktSize_system.cpu.icache_port::system.mem_ctrl.port       652848                       # Cumulative packet size per connected requestor and responder (Byte)
system.foobar.pktSize_system.cpu.icache_port::total       652848                       # Cumulative packet size per connected requestor and responder (Byte)
system.foobar.pktSize_system.cpu.dcache_port::system.mem_ctrl.port       182495                       # Cumulative packet size per connected requestor and responder (Byte)
system.foobar.pktSize_system.cpu.dcache_port::total       182495                       # Cumulative packet size per connected requestor and responder (Byte)
system.foobar.pktSize::total                   835343                       # Cumulative packet size per connected requestor and responder (Byte)
system.foobar.snoops                                0                       # Total snoops (Count)
system.foobar.snoopTraffic                          0                       # Total snoop traffic (Byte)
system.foobar.snoopFanout::samples             106702                       # Request fanout histogram (Count)
system.foobar.snoopFanout::mean                     0                       # Request fanout histogram (Count)
system.foobar.snoopFanout::stdev                    0                       # Request fanout histogram (Count)
system.foobar.snoopFanout::underflows               0      0.00%      0.00% # Request fanout histogram (Count)
system.foobar.snoopFanout::0                   106702    100.00%    100.00% # Request fanout histogram (Count)
system.foobar.snoopFanout::1                        0      0.00%    100.00% # Request fanout histogram (Count)
system.foobar.snoopFanout::overflows                0      0.00%    100.00% # Request fanout histogram (Count)
system.foobar.snoopFanout::min_value                0                       # Request fanout histogram (Count)
system.foobar.snoopFanout::max_value                0                       # Request fanout histogram (Count)
system.foobar.snoopFanout::total               106702                       # Request fanout histogram (Count)
system.foobar.power_state.pwrStateResidencyTicks::UNDEFINED   5237275000                       # Cumulative time (in ticks) in various power states (Tick)
system.foobar.reqLayer2.occupancy           116483000                       # Layer occupancy (ticks) (Tick)
system.foobar.reqLayer2.utilization               0.0                       # Layer utilization (Ratio)
system.foobar.respLayer0.occupancy          185456000                       # Layer occupancy (ticks) (Tick)
system.foobar.respLayer0.utilization              0.0                       # Layer utilization (Ratio)
system.foobar.respLayer1.occupancy           44786250                       # Layer occupancy (ticks) (Tick)
system.foobar.respLayer1.utilization              0.0                       # Layer utilization (Ratio)
system.foobar.snoop_filter.totRequests              0                       # Total number of requests made to the snoop filter. (Count)
system.foobar.snoop_filter.hitSingleRequests            0                       # Number of requests hitting in the snoop filter with a single holder of the requested data. (Count)
system.foobar.snoop_filter.hitMultiRequests            0                       # Number of requests hitting in the snoop filter with multiple (>1) holders of the requested data. (Count)
system.foobar.snoop_filter.totSnoops                0                       # Total number of snoops made to the snoop filter. (Count)
system.foobar.snoop_filter.hitSingleSnoops            0                       # Number of snoops hitting in the snoop filter with a single holder of the requested data. (Count)
system.foobar.snoop_filter.hitMultiSnoops            0                       # Number of snoops hitting in the snoop filter with multiple (>1) holders of the requested data. (Count)
system.mem_ctrl.avgPriority_cpu.inst::samples     81606.00                       # Average QoS priority value for accepted requests (Count)
system.mem_ctrl.avgPriority_cpu.data::samples     14381.00                       # Average QoS priority value for accepted requests (Count)
system.mem_ctrl.priorityMinLatency       0.000000018750                       # per QoS priority minimum request to response latency (Second)
system.mem_ctrl.priorityMaxLatency       0.004393514500                       # per QoS priority maximum request to response latency (Second)
system.mem_ctrl.numReadWriteTurnArounds            36                       # Number of turnarounds from READ to WRITE (Count)
system.mem_ctrl.numWriteReadTurnArounds            36                       # Number of turnarounds from WRITE to READ (Count)
system.mem_ctrl.numStayReadState               201838                       # Number of times bus staying in READ state (Count)
system.mem_ctrl.numStayWriteState                 546                       # Number of times bus staying in WRITE state (Count)
system.mem_ctrl.readReqs                        96921                       # Number of read requests accepted (Count)
system.mem_ctrl.writeReqs                        9781                       # Number of write requests accepted (Count)
system.mem_ctrl.readBursts                      96921                       # Number of controller read bursts, including those serviced by the write queue (Count)
system.mem_ctrl.writeBursts                      9781                       # Number of controller write bursts, including those merged in the write queue (Count)
system.mem_ctrl.servicedByWrQ                    1541                       # Number of controller read bursts serviced by the write queue (Count)
system.mem_ctrl.mergedWrBursts                   9174                       # Number of controller write bursts merged with an existing one (Count)
system.mem_ctrl.neitherReadNorWriteReqs             0                       # Number of requests that are neither read nor write (Count)
system.mem_ctrl.avgRdQLen                        1.00                       # Average read queue length when enqueuing ((Count/Tick))
system.mem_ctrl.avgWrQLen                       25.97                       # Average write queue length when enqueuing ((Count/Tick))
system.mem_ctrl.numRdRetry                          0                       # Number of times read queue was full causing retry (Count)
system.mem_ctrl.numWrRetry                          0                       # Number of times write queue was full causing retry (Count)
system.mem_ctrl.readPktSize::0                    838                       # Read request sizes (log2) (Count)
system.mem_ctrl.readPktSize::1                     21                       # Read request sizes (log2) (Count)
system.mem_ctrl.readPktSize::2                   1050                       # Read request sizes (log2) (Count)
system.mem_ctrl.readPktSize::3                  95012                       # Read request sizes (log2) (Count)
system.mem_ctrl.readPktSize::4                      0                       # Read request sizes (log2) (Count)
system.mem_ctrl.readPktSize::5                      0                       # Read request sizes (log2) (Count)
system.mem_ctrl.readPktSize::6                      0                       # Read request sizes (log2) (Count)
system.mem_ctrl.writePktSize::0                   443                       # Write request sizes (log2) (Count)
system.mem_ctrl.writePktSize::1                    26                       # Write request sizes (log2) (Count)
system.mem_ctrl.writePktSize::2                  1200                       # Write request sizes (log2) (Count)
system.mem_ctrl.writePktSize::3                  8112                       # Write request sizes (log2) (Count)
system.mem_ctrl.writePktSize::4                     0                       # Write request sizes (log2) (Count)
system.mem_ctrl.writePktSize::5                     0                       # Write request sizes (log2) (Count)
system.mem_ctrl.writePktSize::6                     0                       # Write request sizes (log2) (Count)
system.mem_ctrl.rdQLenPdf::0                    95362                       # What read queue length does an incoming req see (Count)
system.mem_ctrl.rdQLenPdf::1                       18                       # What read queue length does an incoming req see (Count)
system.mem_ctrl.rdQLenPdf::2                        0                       # What read queue length does an incoming req see (Count)
system.mem_ctrl.rdQLenPdf::3                        0                       # What read queue length does an incoming req see (Count)
system.mem_ctrl.rdQLenPdf::4                        0                       # What read queue length does an incoming req see (Count)
system.mem_ctrl.rdQLenPdf::5                        0                       # What read queue length does an incoming req see (Count)
system.mem_ctrl.rdQLenPdf::6                        0                       # What read queue length does an incoming req see (Count)
system.mem_ctrl.rdQLenPdf::7                        0                       # What read queue length does an incoming req see (Count)
system.mem_ctrl.rdQLenPdf::8                        0                       # What read queue length does an incoming req see (Count)
system.mem_ctrl.rdQLenPdf::9                        0                       # What read queue length does an incoming req see (Count)
system.mem_ctrl.rdQLenPdf::10                       0                       # What read queue length does an incoming req see (Count)
system.mem_ctrl.rdQLenPdf::11                       0                       # What read queue length does an incoming req see (Count)
system.mem_ctrl.rdQLenPdf::12                       0                       # What read queue length does an incoming req see (Count)
system.mem_ctrl.rdQLenPdf::13                       0                       # What read queue length does an incoming req see (Count)
system.mem_ctrl.rdQLenPdf::14                       0                       # What read queue length does an incoming req see (Count)
system.mem_ctrl.rdQLenPdf::15                       0                       # What read queue length does an incoming req see (Count)
system.mem_ctrl.rdQLenPdf::16                       0                       # What read queue length does an incoming req see (Count)
system.mem_ctrl.rdQLenPdf::17                       0                       # What read queue length does an incoming req see (Count)
system.mem_ctrl.rdQLenPdf::18                       0                       # What read queue length does an incoming req see (Count)
system.mem_ctrl.rdQLenPdf::19                       0                       # What read queue length does an incoming req see (Count)
system.mem_ctrl.rdQLenPdf::20                       0                       # What read queue length does an incoming req see (Count)
system.mem_ctrl.rdQLenPdf::21                       0                       # What read queue length does an incoming req see (Count)
system.mem_ctrl.rdQLenPdf::22                       0                       # What read queue length does an incoming req see (Count)
system.mem_ctrl.rdQLenPdf::23                       0                       # What read queue length does an incoming req see (Count)
system.mem_ctrl.rdQLenPdf::24                       0                       # What read queue length does an incoming req see (Count)
system.mem_ctrl.rdQLenPdf::25                       0                       # What read queue length does an incoming req see (Count)
system.mem_ctrl.rdQLenPdf::26                       0                       # What read queue length does an incoming req see (Count)
system.mem_ctrl.rdQLenPdf::27                       0                       # What read queue length does an incoming req see (Count)
system.mem_ctrl.rdQLenPdf::28                       0                       # What read queue length does an incoming req see (Count)
system.mem_ctrl.rdQLenPdf::29                       0                       # What read queue length does an incoming req see (Count)
system.mem_ctrl.rdQLenPdf::30                       0                       # What read queue length does an incoming req see (Count)
system.mem_ctrl.rdQLenPdf::31                       0                       # What read queue length does an incoming req see (Count)
system.mem_ctrl.wrQLenPdf::0                        1                       # What write queue length does an incoming req see (Count)
system.mem_ctrl.wrQLenPdf::1                        1                       # What write queue length does an incoming req see (Count)
system.mem_ctrl.wrQLenPdf::2                        1                       # What write queue length does an incoming req see (Count)
system.mem_ctrl.wrQLenPdf::3                        1                       # What write queue length does an incoming req see (Count)
system.mem_ctrl.wrQLenPdf::4                        1                       # What write queue length does an incoming req see (Count)
system.mem_ctrl.wrQLenPdf::5                        1                       # What write queue length does an incoming req see (Count)
system.mem_ctrl.wrQLenPdf::6                        1                       # What write queue length does an incoming req see (Count)
system.mem_ctrl.wrQLenPdf::7                        1                       # What write queue length does an incoming req see (Count)
system.mem_ctrl.wrQLenPdf::8                        1                       # What write queue length does an incoming req see (Count)
system.mem_ctrl.wrQLenPdf::9                        1                       # What write queue length does an incoming req see (Count)
system.mem_ctrl.wrQLenPdf::10                       1                       # What write queue length does an incoming req see (Count)
system.mem_ctrl.wrQLenPdf::11                       1                       # What write queue length does an incoming req see (Count)
system.mem_ctrl.wrQLenPdf::12                       1                       # What write queue length does an incoming req see (Count)
system.mem_ctrl.wrQLenPdf::13                       1                       # What write queue length does an incoming req see (Count)
system.mem_ctrl.wrQLenPdf::14                       1                       # What write queue length does an incoming req see (Count)
system.mem_ctrl.wrQLenPdf::15                       4                       # What write queue length does an incoming req see (Count)
system.mem_ctrl.wrQLenPdf::16                       4                       # What write queue length does an incoming req see (Count)
system.mem_ctrl.wrQLenPdf::17                      37                       # What write queue length does an incoming req see (Count)
system.mem_ctrl.wrQLenPdf::18                      37                       # What write queue length does an incoming req see (Count)
system.mem_ctrl.wrQLenPdf::19                      37                       # What write queue length does an incoming req see (Count)
system.mem_ctrl.wrQLenPdf::20                      37                       # What write queue length does an incoming req see (Count)
system.mem_ctrl.wrQLenPdf::21                      37                       # What write queue length does an incoming req see (Count)
system.mem_ctrl.wrQLenPdf::22                      37                       # What write queue length does an incoming req see (Count)
system.mem_ctrl.wrQLenPdf::23                      37                       # What write queue length does an incoming req see (Count)
system.mem_ctrl.wrQLenPdf::24                      37                       # What write queue length does an incoming req see (Count)
system.mem_ctrl.wrQLenPdf::25                      36                       # What write queue length does an incoming req see (Count)
system.mem_ctrl.wrQLenPdf::26                      36                       # What write queue length does an incoming req see (Count)
system.mem_ctrl.wrQLenPdf::27                      36                       # What write queue length does an incoming req see (Count)
system.mem_ctrl.wrQLenPdf::28                      36                       # What write queue length does an incoming req see (Count)
system.mem_ctrl.wrQLenPdf::29                      36                       # What write queue length does an incoming req see (Count)
system.mem_ctrl.wrQLenPdf::30                      36                       # What write queue length does an incoming req see (Count)
system.mem_ctrl.wrQLenPdf::31                      36                       # What write queue length does an incoming req see (Count)
system.mem_ctrl.wrQLenPdf::32                      36                       # What write queue length does an incoming req see (Count)
system.mem_ctrl.wrQLenPdf::33                       0                       # What write queue length does an incoming req see (Count)
system.mem_ctrl.wrQLenPdf::34                       0                       # What write queue length does an incoming req see (Count)
system.mem_ctrl.wrQLenPdf::35                       0                       # What write queue length does an incoming req see (Count)
system.mem_ctrl.wrQLenPdf::36                       0                       # What write queue length does an incoming req see (Count)
system.mem_ctrl.wrQLenPdf::37                       0                       # What write queue length does an incoming req see (Count)
system.mem_ctrl.wrQLenPdf::38                       0                       # What write queue length does an incoming req see (Count)
system.mem_ctrl.wrQLenPdf::39                       0                       # What write queue length does an incoming req see (Count)
system.mem_ctrl.wrQLenPdf::40                       0                       # What write queue length does an incoming req see (Count)
system.mem_ctrl.wrQLenPdf::41                       0                       # What write queue length does an incoming req see (Count)
system.mem_ctrl.wrQLenPdf::42                       0                       # What write queue length does an incoming req see (Count)
system.mem_ctrl.wrQLenPdf::43                       0                       # What write queue length does an incoming req see (Count)
system.mem_ctrl.wrQLenPdf::44                       0                       # What write queue length does an incoming req see (Count)
system.mem_ctrl.wrQLenPdf::45                       0                       # What write queue length does an incoming req see (Count)
system.mem_ctrl.wrQLenPdf::46                       0                       # What write queue length does an incoming req see (Count)
system.mem_ctrl.wrQLenPdf::47                       0                       # What write queue length does an incoming req see (Count)
system.mem_ctrl.wrQLenPdf::48                       0                       # What write queue length does an incoming req see (Count)
system.mem_ctrl.wrQLenPdf::49                       0                       # What write queue length does an incoming req see (Count)
system.mem_ctrl.wrQLenPdf::50                       0                       # What write queue length does an incoming req see (Count)
system.mem_ctrl.wrQLenPdf::51                       0                       # What write queue length does an incoming req see (Count)
system.mem_ctrl.wrQLenPdf::52                       0                       # What write queue length does an incoming req see (Count)
system.mem_ctrl.wrQLenPdf::53                       0                       # What write queue length does an incoming req see (Count)
system.mem_ctrl.wrQLenPdf::54                       0                       # What write queue length does an incoming req see (Count)
system.mem_ctrl.wrQLenPdf::55                       0                       # What write queue length does an incoming req see (Count)
system.mem_ctrl.wrQLenPdf::56                       0                       # What write queue length does an incoming req see (Count)
system.mem_ctrl.wrQLenPdf::57                       0                       # What write queue length does an incoming req see (Count)
system.mem_ctrl.wrQLenPdf::58                       0                       # What write queue length does an incoming req see (Count)
system.mem_ctrl.wrQLenPdf::59                       0                       # What write queue length does an incoming req see (Count)
system.mem_ctrl.wrQLenPdf::60                       0                       # What write queue length does an incoming req see (Count)
system.mem_ctrl.wrQLenPdf::61                       0                       # What write queue length does an incoming req see (Count)
system.mem_ctrl.wrQLenPdf::62                       0                       # What write queue length does an incoming req see (Count)
system.mem_ctrl.wrQLenPdf::63                       0                       # What write queue length does an incoming req see (Count)
system.mem_ctrl.rdPerTurnAround::samples           36                       # Reads before turning the bus around for writes (Count)
system.mem_ctrl.rdPerTurnAround::mean     2634.305556                       # Reads before turning the bus around for writes (Count)
system.mem_ctrl.rdPerTurnAround::gmean    1218.193828                       # Reads before turning the bus around for writes (Count)
system.mem_ctrl.rdPerTurnAround::stdev    4400.928024                       # Reads before turning the bus around for writes (Count)
system.mem_ctrl.rdPerTurnAround::0-1023            18     50.00%     50.00% # Reads before turning the bus around for writes (Count)
system.mem_ctrl.rdPerTurnAround::1024-2047            5     13.89%     63.89% # Reads before turning the bus around for writes (Count)
system.mem_ctrl.rdPerTurnAround::2048-3071            3      8.33%     72.22% # Reads before turning the bus around for writes (Count)
system.mem_ctrl.rdPerTurnAround::3072-4095            4     11.11%     83.33% # Reads before turning the bus around for writes (Count)
system.mem_ctrl.rdPerTurnAround::4096-5119            2      5.56%     88.89% # Reads before turning the bus around for writes (Count)
system.mem_ctrl.rdPerTurnAround::5120-6143            2      5.56%     94.44% # Reads before turning the bus around for writes (Count)
system.mem_ctrl.rdPerTurnAround::12288-13311            1      2.78%     97.22% # Reads before turning the bus around for writes (Count)
system.mem_ctrl.rdPerTurnAround::23552-24575            1      2.78%    100.00% # Reads before turning the bus around for writes (Count)
system.mem_ctrl.rdPerTurnAround::total             36                       # Reads before turning the bus around for writes (Count)
system.mem_ctrl.wrPerTurnAround::samples           36                       # Writes before turning the bus around for reads (Count)
system.mem_ctrl.wrPerTurnAround::mean       16.166667                       # Writes before turning the bus around for reads (Count)
system.mem_ctrl.wrPerTurnAround::gmean      16.157817                       # Writes before turning the bus around for reads (Count)
system.mem_ctrl.wrPerTurnAround::stdev       0.560612                       # Writes before turning the bus around for reads (Count)
system.mem_ctrl.wrPerTurnAround::16                33     91.67%     91.67% # Writes before turning the bus around for reads (Count)
system.mem_ctrl.wrPerTurnAround::18                 3      8.33%    100.00% # Writes before turning the bus around for reads (Count)
system.mem_ctrl.wrPerTurnAround::total             36                       # Writes before turning the bus around for reads (Count)
system.mem_ctrl.bytesReadWrQ                    98624                       # Total number of bytes read from write queue (Byte)
system.mem_ctrl.bytesReadSys                   765152                       # Total read bytes from the system interface side (Byte)
system.mem_ctrl.bytesWrittenSys                 70191                       # Total written bytes from the system interface side (Byte)
system.mem_ctrl.avgRdBWSys               146097350.24416324                       # Average system read bandwidth in Byte/s ((Byte/Second))
system.mem_ctrl.avgWrBWSys               13402198.66247237                       # Average system write bandwidth in Byte/s ((Byte/Second))
system.mem_ctrl.totGap                     5237149000                       # Total gap between requests (Tick)
system.mem_ctrl.avgGap                       49082.01                       # Average gap between requests ((Tick/Count))
system.mem_ctrl.requestorReadBytes::cpu.inst       652848                       # Per-requestor bytes read from memory (Byte)
system.mem_ctrl.requestorReadBytes::cpu.data       101325                       # Per-requestor bytes read from memory (Byte)
system.mem_ctrl.requestorWriteBytes::cpu.data         4036                       # Per-requestor bytes write to memory (Byte)
system.mem_ctrl.requestorReadRate::cpu.inst 124654137.886591792107                       # Per-requestor bytes read from memory rate ((Byte/Second))
system.mem_ctrl.requestorReadRate::cpu.data 19346893.183955397457                       # Per-requestor bytes read from memory rate ((Byte/Second))
system.mem_ctrl.requestorWriteRate::cpu.data 770629.764524490340                       # Per-requestor bytes write to memory rate ((Byte/Second))
system.mem_ctrl.requestorReadAccesses::cpu.inst        81606                       # Per-requestor read serviced memory accesses (Count)
system.mem_ctrl.requestorReadAccesses::cpu.data        15315                       # Per-requestor read serviced memory accesses (Count)
system.mem_ctrl.requestorWriteAccesses::cpu.data         9781                       # Per-requestor write serviced memory accesses (Count)
system.mem_ctrl.requestorReadTotalLat::cpu.inst   1779838000                       # Per-requestor read total memory access latency (Tick)
system.mem_ctrl.requestorReadTotalLat::cpu.data    334256750                       # Per-requestor read total memory access latency (Tick)
system.mem_ctrl.requestorWriteTotalLat::cpu.data 130721409500                       # Per-requestor write total memory access latency (Tick)
system.mem_ctrl.requestorReadAvgLat::cpu.inst     21810.14                       # Per-requestor read average memory access latency ((Tick/Count))
system.mem_ctrl.requestorReadAvgLat::cpu.data     21825.45                       # Per-requestor read average memory access latency ((Tick/Count))
system.mem_ctrl.requestorWriteAvgLat::cpu.data  13364830.74                       # Per-requestor write average memory access latency ((Tick/Count))
system.mem_ctrl.dram.cpuFallbacks                   0                       # Number of cpu compression/decompression fallbacks (Count)
system.mem_ctrl.dram.refReadSuccesses               0                       # Number of successful XFM refresh resadouts (Count)
system.mem_ctrl.dram.refWriteSuccesses             68                       # Number of accepted XFM page submissions (Count)
system.mem_ctrl.dram.pageRejects                    0                       # Number of rejected XFM page submissions (Count)
system.mem_ctrl.dram.pageAccepts                  200                       # Total number of successfully completed refreshes (Count)
system.mem_ctrl.dram.conditionalRefreshes          266                       # Number of data movements due to default refresh access (Count)
system.mem_ctrl.dram.targetRefreshes              134                       # Number of dmoves due to hol dequeue (Count)
system.mem_ctrl.dram.bytesCompressed                0                       # Number of total bytes compressed (Count)
system.mem_ctrl.dram.bytesDecompressed              0                       # Number of total bytes decompressed (Count)
system.mem_ctrl.dram.avgInflightRequests     0.516369                       # Average number of inflight requests (Count)
system.mem_ctrl.dram.totalRefreshes              1344                       # Total number of successfully completed refreshes (Count)
system.mem_ctrl.dram.totalInflightsSeen           694                       # Inflight requests evaluated at each XFM rd/wr (Count)
system.mem_ctrl.dram.readBursts                 95380                       # Number of DRAM read bursts (Count)
system.mem_ctrl.dram.writeBursts                  582                       # Number of DRAM write bursts (Count)
system.mem_ctrl.dram.perBankRdBursts::0          3694                       # Per bank write bursts (Count)
system.mem_ctrl.dram.perBankRdBursts::1          6366                       # Per bank write bursts (Count)
system.mem_ctrl.dram.perBankRdBursts::2          3871                       # Per bank write bursts (Count)
system.mem_ctrl.dram.perBankRdBursts::3          4717                       # Per bank write bursts (Count)
system.mem_ctrl.dram.perBankRdBursts::4          3873                       # Per bank write bursts (Count)
system.mem_ctrl.dram.perBankRdBursts::5          9966                       # Per bank write bursts (Count)
system.mem_ctrl.dram.perBankRdBursts::6          1363                       # Per bank write bursts (Count)
system.mem_ctrl.dram.perBankRdBursts::7          1247                       # Per bank write bursts (Count)
system.mem_ctrl.dram.perBankRdBursts::8         20975                       # Per bank write bursts (Count)
system.mem_ctrl.dram.perBankRdBursts::9          3565                       # Per bank write bursts (Count)
system.mem_ctrl.dram.perBankRdBursts::10        18270                       # Per bank write bursts (Count)
system.mem_ctrl.dram.perBankRdBursts::11         3458                       # Per bank write bursts (Count)
system.mem_ctrl.dram.perBankRdBursts::12         1950                       # Per bank write bursts (Count)
system.mem_ctrl.dram.perBankRdBursts::13         1883                       # Per bank write bursts (Count)
system.mem_ctrl.dram.perBankRdBursts::14         7911                       # Per bank write bursts (Count)
system.mem_ctrl.dram.perBankRdBursts::15         2271                       # Per bank write bursts (Count)
system.mem_ctrl.dram.perBankWrBursts::0           111                       # Per bank write bursts (Count)
system.mem_ctrl.dram.perBankWrBursts::1           152                       # Per bank write bursts (Count)
system.mem_ctrl.dram.perBankWrBursts::2            42                       # Per bank write bursts (Count)
system.mem_ctrl.dram.perBankWrBursts::3             0                       # Per bank write bursts (Count)
system.mem_ctrl.dram.perBankWrBursts::4            30                       # Per bank write bursts (Count)
system.mem_ctrl.dram.perBankWrBursts::5           112                       # Per bank write bursts (Count)
system.mem_ctrl.dram.perBankWrBursts::6            50                       # Per bank write bursts (Count)
system.mem_ctrl.dram.perBankWrBursts::7            40                       # Per bank write bursts (Count)
system.mem_ctrl.dram.perBankWrBursts::8             4                       # Per bank write bursts (Count)
system.mem_ctrl.dram.perBankWrBursts::9             1                       # Per bank write bursts (Count)
system.mem_ctrl.dram.perBankWrBursts::10            0                       # Per bank write bursts (Count)
system.mem_ctrl.dram.perBankWrBursts::11            0                       # Per bank write bursts (Count)
system.mem_ctrl.dram.perBankWrBursts::12            0                       # Per bank write bursts (Count)
system.mem_ctrl.dram.perBankWrBursts::13            0                       # Per bank write bursts (Count)
system.mem_ctrl.dram.perBankWrBursts::14            1                       # Per bank write bursts (Count)
system.mem_ctrl.dram.perBankWrBursts::15           39                       # Per bank write bursts (Count)
system.mem_ctrl.dram.totQLat                325719750                       # Total ticks spent queuing (Tick)
system.mem_ctrl.dram.totBusLat              476900000                       # Total ticks spent in databus transfers (Tick)
system.mem_ctrl.dram.totMemAccLat          2114094750                       # Total ticks spent from burst creation until serviced by the DRAM (Tick)
system.mem_ctrl.dram.avgQLat                  3414.97                       # Average queueing delay per DRAM burst ((Tick/Count))
system.mem_ctrl.dram.avgBusLat                5000.00                       # Average bus latency per DRAM burst ((Tick/Count))
system.mem_ctrl.dram.avgMemAccLat            22164.97                       # Average memory access latency per DRAM burst ((Tick/Count))
system.mem_ctrl.dram.readRowHits                85948                       # Number of row buffer hits during reads (Count)
system.mem_ctrl.dram.writeRowHits                 521                       # Number of row buffer hits during writes (Count)
system.mem_ctrl.dram.readRowHitRate             90.11                       # Row buffer hit rate for reads (Ratio)
system.mem_ctrl.dram.writeRowHitRate            89.52                       # Row buffer hit rate for writes (Ratio)
system.mem_ctrl.dram.bytesPerActivate::samples         9488                       # Bytes accessed per row activation (Byte)
system.mem_ctrl.dram.bytesPerActivate::mean   647.170320                       # Bytes accessed per row activation (Byte)
system.mem_ctrl.dram.bytesPerActivate::gmean   470.818585                       # Bytes accessed per row activation (Byte)
system.mem_ctrl.dram.bytesPerActivate::stdev   382.011452                       # Bytes accessed per row activation (Byte)
system.mem_ctrl.dram.bytesPerActivate::0-127         1044     11.00%     11.00% # Bytes accessed per row activation (Byte)
system.mem_ctrl.dram.bytesPerActivate::128-255         1001     10.55%     21.55% # Bytes accessed per row activation (Byte)
system.mem_ctrl.dram.bytesPerActivate::256-383         1084     11.42%     32.98% # Bytes accessed per row activation (Byte)
system.mem_ctrl.dram.bytesPerActivate::384-511          704      7.42%     40.40% # Bytes accessed per row activation (Byte)
system.mem_ctrl.dram.bytesPerActivate::512-639          522      5.50%     45.90% # Bytes accessed per row activation (Byte)
system.mem_ctrl.dram.bytesPerActivate::640-767          437      4.61%     50.51% # Bytes accessed per row activation (Byte)
system.mem_ctrl.dram.bytesPerActivate::768-895          329      3.47%     53.97% # Bytes accessed per row activation (Byte)
system.mem_ctrl.dram.bytesPerActivate::896-1023          250      2.63%     56.61% # Bytes accessed per row activation (Byte)
system.mem_ctrl.dram.bytesPerActivate::1024-1151         4117     43.39%    100.00% # Bytes accessed per row activation (Byte)
system.mem_ctrl.dram.bytesPerActivate::total         9488                       # Bytes accessed per row activation (Byte)
system.mem_ctrl.dram.bytesRead                6104320                       # Total bytes read (Byte)
system.mem_ctrl.dram.bytesWritten               37248                       # Total bytes written (Byte)
system.mem_ctrl.dram.avgRdBW              1165.552697                       # Average DRAM read bandwidth in MiBytes/s ((Byte/Second))
system.mem_ctrl.dram.avgWrBW                 7.112096                       # Average DRAM write bandwidth in MiBytes/s ((Byte/Second))
system.mem_ctrl.dram.peakBW                  12800.00                       # Theoretical peak bandwidth in MiByte/s ((Byte/Second))
system.mem_ctrl.dram.busUtil                     9.16                       # Data bus utilization in percentage (Ratio)
system.mem_ctrl.dram.busUtilRead                 9.11                       # Data bus utilization in percentage for reads (Ratio)
system.mem_ctrl.dram.busUtilWrite                0.06                       # Data bus utilization in percentage for writes (Ratio)
system.mem_ctrl.dram.pageHitRate                90.11                       # Row buffer hit rate, read and write combined (Ratio)
system.mem_ctrl.dram.power_state.pwrStateResidencyTicks::UNDEFINED   5237275000                       # Cumulative time (in ticks) in various power states (Tick)
system.mem_ctrl.dram.rank0.actEnergy         31887240                       # Energy for activate commands per rank (pJ) (Joule)
system.mem_ctrl.dram.rank0.preEnergy         16933290                       # Energy for precharge commands per rank (pJ) (Joule)
system.mem_ctrl.dram.rank0.readEnergy       250592580                       # Energy for read commands per rank (pJ) (Joule)
system.mem_ctrl.dram.rank0.writeEnergy        2803140                       # Energy for write commands per rank (pJ) (Joule)
system.mem_ctrl.dram.rank0.refreshEnergy 413038080.000000                       # Energy for refresh commands per rank (pJ) (Joule)
system.mem_ctrl.dram.rank0.actBackEnergy   2226291750                       # Energy for active background per rank (pJ) (Joule)
system.mem_ctrl.dram.rank0.preBackEnergy    136341600                       # Energy for precharge background per rank (pJ) (Joule)
system.mem_ctrl.dram.rank0.actPowerDownEnergy            0                       # Energy for active power-down per rank (pJ) (Joule)
system.mem_ctrl.dram.rank0.prePowerDownEnergy            0                       # Energy for precharge power-down per rank (pJ) (Joule)
system.mem_ctrl.dram.rank0.selfRefreshEnergy            0                       # Energy for self refresh per rank (pJ) (Joule)
system.mem_ctrl.dram.rank0.totalEnergy     3077887680                       # Total energy per rank (pJ) (Joule)
system.mem_ctrl.dram.rank0.averagePower    587.688766                       # Core power per rank (mW) (Watt)
system.mem_ctrl.dram.rank0.totalIdleTime            0                       # Total Idle time Per DRAM Rank (Tick)
system.mem_ctrl.dram.rank0.pwrStateTime::IDLE    332343000                       # Time in different power states (Tick)
system.mem_ctrl.dram.rank0.pwrStateTime::REF    174720000                       # Time in different power states (Tick)
system.mem_ctrl.dram.rank0.pwrStateTime::SREF            0                       # Time in different power states (Tick)
system.mem_ctrl.dram.rank0.pwrStateTime::PRE_PDN            0                       # Time in different power states (Tick)
system.mem_ctrl.dram.rank0.pwrStateTime::ACT   4730212000                       # Time in different power states (Tick)
system.mem_ctrl.dram.rank0.pwrStateTime::ACT_PDN            0                       # Time in different power states (Tick)
system.mem_ctrl.dram.rank1.actEnergy         35892780                       # Energy for activate commands per rank (pJ) (Joule)
system.mem_ctrl.dram.rank1.preEnergy         19073670                       # Energy for precharge commands per rank (pJ) (Joule)
system.mem_ctrl.dram.rank1.readEnergy       430420620                       # Energy for read commands per rank (pJ) (Joule)
system.mem_ctrl.dram.rank1.writeEnergy         234900                       # Energy for write commands per rank (pJ) (Joule)
system.mem_ctrl.dram.rank1.refreshEnergy 413038080.000000                       # Energy for refresh commands per rank (pJ) (Joule)
system.mem_ctrl.dram.rank1.actBackEnergy   2167706580                       # Energy for active background per rank (pJ) (Joule)
system.mem_ctrl.dram.rank1.preBackEnergy    185676480                       # Energy for precharge background per rank (pJ) (Joule)
system.mem_ctrl.dram.rank1.actPowerDownEnergy            0                       # Energy for active power-down per rank (pJ) (Joule)
system.mem_ctrl.dram.rank1.prePowerDownEnergy            0                       # Energy for precharge power-down per rank (pJ) (Joule)
system.mem_ctrl.dram.rank1.selfRefreshEnergy            0                       # Energy for self refresh per rank (pJ) (Joule)
system.mem_ctrl.dram.rank1.totalEnergy     3252043110                       # Total energy per rank (pJ) (Joule)
system.mem_ctrl.dram.rank1.averagePower    620.941828                       # Core power per rank (mW) (Watt)
system.mem_ctrl.dram.rank1.totalIdleTime            0                       # Total Idle time Per DRAM Rank (Tick)
system.mem_ctrl.dram.rank1.pwrStateTime::IDLE    439476750                       # Time in different power states (Tick)
system.mem_ctrl.dram.rank1.pwrStateTime::REF    174720000                       # Time in different power states (Tick)
system.mem_ctrl.dram.rank1.pwrStateTime::SREF            0                       # Time in different power states (Tick)
system.mem_ctrl.dram.rank1.pwrStateTime::PRE_PDN            0                       # Time in different power states (Tick)
system.mem_ctrl.dram.rank1.pwrStateTime::ACT   4623078250                       # Time in different power states (Tick)
system.mem_ctrl.dram.rank1.pwrStateTime::ACT_PDN            0                       # Time in different power states (Tick)
system.mem_ctrl.power_state.pwrStateResidencyTicks::UNDEFINED   5237275000                       # Cumulative time (in ticks) in various power states (Tick)
system.workload.inst.arm                            0                       # number of arm instructions executed (Count)
system.workload.inst.quiesce                        0                       # number of quiesce instructions executed (Count)

---------- End Simulation Statistics   ----------
